<?xml version="1.0" encoding="utf-8"?>
<!DOCTYPE network SYSTEM "http://matsim.org/files/dtd/network_v1.dtd">

<network name="test network for transit tutorial">
<!--

(14)==========(24)==========(34)==========(44)
 ||            ||            ||            ||
 ||            ||            ||            ||
 ||            ||            ||            ||
 ||            ||            ||            ||
 ||            ||            ||            ||
 ||            ||            ||            ||
(13)==========(23)==========(33)==========(43)
 ||            ||  (2)       ||            ||
 ||            || //   \\    ||            ||
 ||           /||/        \\ ||            ||
 ||         // ||           \||\           ||
 ||        //  ||            ||\\          ||
 ||       //   ||            || \\         ||
(12)==========(22)==========(32)==========(42)
 ||     //     ||            ||   \\       ||
 ||    //      ||            ||    \\      ||
 ||   //       ||            ||     \\     ||
 ||  //        ||            ||      \\    ||
 || //         ||            ||       \\   ||
 ||(1)         ||            ||        (3) ||
(11)==========(21)==========(31)==========(41)


-->
<nodes>
	<node id="1" x="1050" y="1050" />
	<node id="2" x="2050" y="2950" />
	<node id="3" x="3950" y="1050" />
</nodes>
<links capperiod="1:00:00">
	<link id="11" from="1" to="1" length="100.00" capacity="2000" freespeed="100" modes="bus" permlanes="1" />
	<link id="12" from="1" to="2" length="2400.00" capacity="2000" freespeed="12" modes="bus" permlanes="1" />
	<link id="21" from="2" to="1" length="2400.00" capacity="2000" freespeed="12" modes="bus" permlanes="1" />
	<link id="23" from="2" to="3" length="3600.00" capacity="2000" freespeed="12" modes="bus" permlanes="1" />
	<link id="32" from="3" to="2" length="3600.00" capacity="2000" freespeed="12" modes="bus" permlanes="1" />
	<link id="33" from="3" to="3" length="100.00" capacity="2000" freespeed="100" modes="bus" permlanes="1" />
</links>
</network>