<?xml version="1.0" encoding="utf-8"?>
<!DOCTYPE population SYSTEM "http://www.matsim.org/files/dtd/population_v5.dtd">

<population>

<!-- ====================================================================== -->

	<person id="1133962063" employed="no">
		<plan selected="yes">
			<act type="home" x="936844.9528551348" y="6276393.904704436" end_time="06:17:00" />
			<leg mode="car">
			</leg>
			<act type="work" x="936726.820611505" y="6276716.597177965" end_time="16:01:00" />
			<leg mode="car">
			</leg>
			<act type="home" x="936844.9528551348" y="6276393.904704436" />
		</plan>

	</person>

<!-- ====================================================================== -->

	<person id="1186085502" employed="no">
		<plan selected="yes">
			<act type="home" x="937067.5584408739" y="6276648.72788902" end_time="06:21:00" />
			<leg mode="car">
			</leg>
			<act type="work" x="936880.7865992209" y="6278168.696091798" end_time="15:47:00" />
			<leg mode="car">
			</leg>
			<act type="home" x="937067.5584408739" y="6276648.72788902" />
		</plan>

	</person>

<!-- ====================================================================== -->

	<person id="1234225586" employed="no">
		<plan selected="yes">
			<act type="home" x="937117.3405171566" y="6277140.813800805" end_time="05:33:00" />
			<leg mode="car">
			</leg>
			<act type="work" x="936551.5480732508" y="6276841.577209784" end_time="15:48:00" />
			<leg mode="car">
			</leg>
			<act type="home" x="937117.3405171566" y="6277140.813800805" />
		</plan>

	</person>

<!-- ====================================================================== -->

	<person id="1333988764" employed="no">
		<plan selected="yes">
			<act type="home" x="936196.271918384" y="6276452.403892795" end_time="06:23:00" />
			<leg mode="car">
			</leg>
			<act type="work" x="936314.7269885371" y="6277082.632321229" end_time="15:58:00" />
			<leg mode="car">
			</leg>
			<act type="home" x="936196.271918384" y="6276452.403892795" />
		</plan>

	</person>

<!-- ====================================================================== -->

	<person id="1370150450" employed="no">
		<plan selected="yes">
			<act type="home" x="937084.545795169" y="6276724.047728263" end_time="05:57:00" />
			<leg mode="car">
			</leg>
			<act type="work" x="936420.8144632633" y="6276436.383187077" end_time="15:31:00" />
			<leg mode="car">
			</leg>
			<act type="home" x="937084.545795169" y="6276724.047728263" />
		</plan>

	</person>

<!-- ====================================================================== -->

	<person id="1399649351" employed="no">
		<plan selected="yes">
			<act type="home" x="936739.33292227" y="6276397.400728101" end_time="06:10:00" />
			<leg mode="car">
			</leg>
			<act type="work" x="936735.1027816201" y="6276707.958621037" end_time="15:56:00" />
			<leg mode="car">
			</leg>
			<act type="home" x="936739.33292227" y="6276397.400728101" />
		</plan>

	</person>

<!-- ====================================================================== -->

	<person id="1399649352" employed="no">
		<plan selected="yes">
			<act type="home" x="936535.2175039515" y="6276428.966832531" end_time="05:56:00" />
			<leg mode="car">
			</leg>
			<act type="work" x="936732.1862109611" y="6276652.987735827" end_time="16:20:00" />
			<leg mode="car">
			</leg>
			<act type="home" x="936535.2175039515" y="6276428.966832531" />
		</plan>

	</person>

<!-- ====================================================================== -->

	<person id="1399649356" employed="no">
		<plan selected="yes">
			<act type="home" x="936724.2157354204" y="6276419.259394313" end_time="05:59:00" />
			<leg mode="car">
			</leg>
			<act type="work" x="937118.0195660505" y="6277149.384910273" end_time="15:48:00" />
			<leg mode="car">
			</leg>
			<act type="home" x="936724.2157354204" y="6276419.259394313" />
		</plan>

	</person>

<!-- ====================================================================== -->

	<person id="1399649361" employed="no">
		<plan selected="yes">
			<act type="home" x="936591.6676177328" y="6276407.668184614" end_time="05:31:00" />
			<leg mode="car">
			</leg>
			<act type="work" x="936789.2151860946" y="6277284.979321545" end_time="16:15:00" />
			<leg mode="car">
			</leg>
			<act type="home" x="936591.6676177328" y="6276407.668184614" />
		</plan>

	</person>

<!-- ====================================================================== -->

	<person id="1432168290" employed="no">
		<plan selected="yes">
			<act type="home" x="937058.1742078001" y="6276504.199856856" end_time="06:28:00" />
			<leg mode="car">
			</leg>
			<act type="work" x="936096.8858770039" y="6276834.805430658" end_time="15:55:00" />
			<leg mode="car">
			</leg>
			<act type="home" x="937058.1742078001" y="6276504.199856856" />
		</plan>

	</person>

<!-- ====================================================================== -->

	<person id="1446557028" employed="no">
		<plan selected="yes">
			<act type="home" x="936580.6581200933" y="6276428.644382479" end_time="05:53:00" />
			<leg mode="car">
			</leg>
			<act type="work" x="936859.7806113083" y="6276709.095719383" end_time="15:35:00" />
			<leg mode="car">
			</leg>
			<act type="home" x="936580.6581200933" y="6276428.644382479" />
		</plan>

	</person>

<!-- ====================================================================== -->

	<person id="1481190836" employed="no">
		<plan selected="yes">
			<act type="home" x="936102.6188307798" y="6276630.568406773" end_time="05:38:00" />
			<leg mode="car">
			</leg>
			<act type="work" x="936161.5513692056" y="6276942.560524919" end_time="15:34:00" />
			<leg mode="car">
			</leg>
			<act type="home" x="936102.6188307798" y="6276630.568406773" />
		</plan>

	</person>

<!-- ====================================================================== -->

	<person id="1481190952" employed="no">
		<plan selected="yes">
			<act type="home" x="936117.7137537313" y="6276613.087820544" end_time="05:43:00" />
			<leg mode="car">
			</leg>
			<act type="work" x="936363.3513421157" y="6276440.252592031" end_time="16:08:00" />
			<leg mode="car">
			</leg>
			<act type="home" x="936117.7137537313" y="6276613.087820544" />
		</plan>

	</person>

<!-- ====================================================================== -->

	<person id="14892148" employed="no">
		<plan selected="yes">
			<act type="home" x="936225.9162987823" y="6276433.243539624" end_time="06:24:00" />
			<leg mode="car">
			</leg>
			<act type="work" x="936591.6676177328" y="6276407.668184614" end_time="15:49:00" />
			<leg mode="car">
			</leg>
			<act type="home" x="936225.9162987823" y="6276433.243539624" />
		</plan>

	</person>

<!-- ====================================================================== -->

	<person id="1489511472" employed="no">
		<plan selected="yes">
			<act type="home" x="936454.9561510896" y="6276654.192712811" end_time="06:16:00" />
			<leg mode="car">
			</leg>
			<act type="work" x="936241.0112217338" y="6276432.276189015" end_time="15:58:00" />
			<leg mode="car">
			</leg>
			<act type="home" x="936454.9561510896" y="6276654.192712811" />
		</plan>

	</person>

<!-- ====================================================================== -->

	<person id="14954722" employed="no">
		<plan selected="yes">
			<act type="home" x="936093.2902574512" y="6276830.375773557" end_time="05:38:00" />
			<leg mode="car">
			</leg>
			<act type="work" x="936414.2688772045" y="6277028.04936039" end_time="16:02:00" />
			<leg mode="car">
			</leg>
			<act type="home" x="936093.2902574512" y="6276830.375773557" />
		</plan>

	</person>

<!-- ====================================================================== -->

	<person id="14954734" employed="no">
		<plan selected="yes">
			<act type="home" x="936190.5500965574" y="6276522.5966649335" end_time="05:52:00" />
			<leg mode="car">
			</leg>
			<act type="work" x="937118.0195660505" y="6277149.384910273" end_time="16:05:00" />
			<leg mode="car">
			</leg>
			<act type="home" x="936190.5500965574" y="6276522.5966649335" />
		</plan>

	</person>

<!-- ====================================================================== -->

	<person id="14954736" employed="no">
		<plan selected="yes">
			<act type="home" x="937192.2140066645" y="6276425.453824753" end_time="06:21:00" />
			<leg mode="car">
			</leg>
			<act type="work" x="936735.536927634" y="6276716.071057351" end_time="15:46:00" />
			<leg mode="car">
			</leg>
			<act type="home" x="937192.2140066645" y="6276425.453824753" />
		</plan>

	</person>

<!-- ====================================================================== -->

	<person id="14961081" employed="no">
		<plan selected="yes">
			<act type="home" x="936774.6657286478" y="6276398.164422781" end_time="05:44:00" />
			<leg mode="car">
			</leg>
			<act type="work" x="936739.33292227" y="6276397.400728101" end_time="16:12:00" />
			<leg mode="car">
			</leg>
			<act type="home" x="936774.6657286478" y="6276398.164422781" />
		</plan>

	</person>

<!-- ====================================================================== -->

	<person id="14961083" employed="no">
		<plan selected="yes">
			<act type="home" x="935736.4667616624" y="6277158.719791863" end_time="06:00:00" />
			<leg mode="car">
			</leg>
			<act type="work" x="936592.4468541682" y="6276732.906933295" end_time="15:39:00" />
			<leg mode="car">
			</leg>
			<act type="home" x="935736.4667616624" y="6277158.719791863" />
		</plan>

	</person>

<!-- ====================================================================== -->

	<person id="1532739823" employed="no">
		<plan selected="yes">
			<act type="home" x="936137.3839077544" y="6276589.480600811" end_time="05:43:00" />
			<leg mode="car">
			</leg>
			<act type="work" x="937130.7211199503" y="6277428.570217963" end_time="16:13:00" />
			<leg mode="car">
			</leg>
			<act type="home" x="936137.3839077544" y="6276589.480600811" />
		</plan>

	</person>

<!-- ====================================================================== -->

	<person id="1557489314" employed="no">
		<plan selected="yes">
			<act type="home" x="936463.5500157787" y="6276653.802368137" end_time="06:12:00" />
			<leg mode="car">
			</leg>
			<act type="work" x="937039.639512583" y="6276453.133650242" end_time="16:27:00" />
			<leg mode="car">
			</leg>
			<act type="home" x="936463.5500157787" y="6276653.802368137" />
		</plan>

	</person>

<!-- ====================================================================== -->

	<person id="1600290401" employed="no">
		<plan selected="yes">
			<act type="home" x="936241.0112217338" y="6276432.276189015" end_time="05:32:00" />
			<leg mode="car">
			</leg>
			<act type="work" x="936039.7678462779" y="6276772.84135787" end_time="15:32:00" />
			<leg mode="car">
			</leg>
			<act type="home" x="936241.0112217338" y="6276432.276189015" />
		</plan>

	</person>

<!-- ====================================================================== -->

	<person id="1673535708" employed="no">
		<plan selected="yes">
			<act type="home" x="936108.7080069261" y="6276851.26816129" end_time="05:54:00" />
			<leg mode="car">
			</leg>
			<act type="work" x="937130.4205573249" y="6277442.097760343" end_time="16:14:00" />
			<leg mode="car">
			</leg>
			<act type="home" x="936108.7080069261" y="6276851.26816129" />
		</plan>

	</person>

<!-- ====================================================================== -->

	<person id="1673535711" employed="no">
		<plan selected="yes">
			<act type="home" x="936114.863974767" y="6276860.636657371" end_time="05:46:00" />
			<leg mode="car">
			</leg>
			<act type="work" x="936882.9684612405" y="6276978.999674614" end_time="15:56:00" />
			<leg mode="car">
			</leg>
			<act type="home" x="936114.863974767" y="6276860.636657371" />
		</plan>

	</person>

<!-- ====================================================================== -->

	<person id="1673535722" employed="no">
		<plan selected="yes">
			<act type="home" x="936157.3212285555" y="6276935.126754016" end_time="06:11:00" />
			<leg mode="car">
			</leg>
			<act type="work" x="936805.0448176854" y="6276396.823714387" end_time="16:17:00" />
			<leg mode="car">
			</leg>
			<act type="home" x="936157.3212285555" y="6276935.126754016" />
		</plan>

	</person>

<!-- ====================================================================== -->

	<person id="1673545898" employed="no">
		<plan selected="yes">
			<act type="home" x="936405.1963387049" y="6276840.168543503" end_time="06:14:00" />
			<leg mode="car">
			</leg>
			<act type="work" x="936535.2175039515" y="6276428.966832531" end_time="16:17:00" />
			<leg mode="car">
			</leg>
			<act type="home" x="936405.1963387049" y="6276840.168543503" />
		</plan>

	</person>

<!-- ====================================================================== -->

	<person id="1673545900" employed="no">
		<plan selected="yes">
			<act type="home" x="936407.7566869932" y="6276922.720178327" end_time="05:38:00" />
			<leg mode="car">
			</leg>
			<act type="work" x="935987.4142897577" y="6277029.695669664" end_time="16:07:00" />
			<leg mode="car">
			</leg>
			<act type="home" x="936407.7566869932" y="6276922.720178327" />
		</plan>

	</person>

<!-- ====================================================================== -->

	<person id="1673545901" employed="no">
		<plan selected="yes">
			<act type="home" x="936410.0610004527" y="6276964.301796536" end_time="06:00:00" />
			<leg mode="car">
			</leg>
			<act type="work" x="936864.3001826344" y="6276708.824173494" end_time="15:43:00" />
			<leg mode="car">
			</leg>
			<act type="home" x="936410.0610004527" y="6276964.301796536" />
		</plan>

	</person>

<!-- ====================================================================== -->

	<person id="1673545902" employed="no">
		<plan selected="yes">
			<act type="home" x="936412.5434250974" y="6276996.803489579" end_time="06:08:00" />
			<leg mode="car">
			</leg>
			<act type="work" x="936304.2072966571" y="6276390.086233633" end_time="15:49:00" />
			<leg mode="car">
			</leg>
			<act type="home" x="936412.5434250974" y="6276996.803489579" />
		</plan>

	</person>

<!-- ====================================================================== -->

	<person id="1673545903" employed="no">
		<plan selected="yes">
			<act type="home" x="936414.2688772045" y="6277028.04936039" end_time="05:53:00" />
			<leg mode="car">
			</leg>
			<act type="work" x="936871.814248263" y="6276823.9264685325" end_time="16:27:00" />
			<leg mode="car">
			</leg>
			<act type="home" x="936414.2688772045" y="6277028.04936039" />
		</plan>

	</person>

<!-- ====================================================================== -->

	<person id="1673545908" employed="no">
		<plan selected="yes">
			<act type="home" x="936416.2614960897" y="6277071.922763485" end_time="05:53:00" />
			<leg mode="car">
			</leg>
			<act type="work" x="936910.8428617353" y="6276413.947461683" end_time="15:48:00" />
			<leg mode="car">
			</leg>
			<act type="home" x="936416.2614960897" y="6277071.922763485" />
		</plan>

	</person>

<!-- ====================================================================== -->

	<person id="1673545910" employed="no">
		<plan selected="yes">
			<act type="home" x="936403.6935255793" y="6277077.353916272" end_time="05:32:00" />
			<leg mode="car">
			</leg>
			<act type="work" x="936585.2110872668" y="6276646.046392921" end_time="16:00:00" />
			<leg mode="car">
			</leg>
			<act type="home" x="936403.6935255793" y="6277077.353916272" />
		</plan>

	</person>

<!-- ====================================================================== -->

	<person id="1673545912" employed="no">
		<plan selected="yes">
			<act type="home" x="936314.7269885371" y="6277082.632321229" end_time="06:24:00" />
			<leg mode="car">
			</leg>
			<act type="work" x="937092.7500416406" y="6276772.943188351" end_time="16:07:00" />
			<leg mode="car">
			</leg>
			<act type="home" x="936314.7269885371" y="6277082.632321229" />
		</plan>

	</person>

<!-- ====================================================================== -->

	<person id="1673583354" employed="no">
		<plan selected="yes">
			<act type="home" x="936796.4175571487" y="6276411.843054792" end_time="05:34:00" />
			<leg mode="car">
			</leg>
			<act type="work" x="936871.814248263" y="6276823.9264685325" end_time="15:32:00" />
			<leg mode="car">
			</leg>
			<act type="home" x="936796.4175571487" y="6276411.843054792" />
		</plan>

	</person>

<!-- ====================================================================== -->

	<person id="1673626406" employed="no">
		<plan selected="yes">
			<act type="home" x="936588.3614288563" y="6277058.293979835" end_time="05:51:00" />
			<leg mode="car">
			</leg>
			<act type="work" x="936735.1027816201" y="6276707.958621037" end_time="16:28:00" />
			<leg mode="car">
			</leg>
			<act type="home" x="936588.3614288563" y="6277058.293979835" />
		</plan>

	</person>

<!-- ====================================================================== -->

	<person id="1673626423" employed="no">
		<plan selected="yes">
			<act type="home" x="936632.5775305993" y="6277140.84774578" end_time="06:23:00" />
			<leg mode="car">
			</leg>
			<act type="work" x="936228.6436263068" y="6276472.735298242" end_time="15:33:00" />
			<leg mode="car">
			</leg>
			<act type="home" x="936632.5775305993" y="6277140.84774578" />
		</plan>

	</person>

<!-- ====================================================================== -->

	<person id="1673636400" employed="no">
		<plan selected="yes">
			<act type="home" x="936546.1602098966" y="6276767.648005111" end_time="06:25:00" />
			<leg mode="car">
			</leg>
			<act type="work" x="936215.775093171" y="6276499.295179549" end_time="16:22:00" />
			<leg mode="car">
			</leg>
			<act type="home" x="936546.1602098966" y="6276767.648005111" />
		</plan>

	</person>

<!-- ====================================================================== -->

	<person id="1673643733" employed="no">
		<plan selected="yes">
			<act type="home" x="936547.7632105639" y="6276790.491992414" end_time="06:04:00" />
			<leg mode="car">
			</leg>
			<act type="work" x="937117.3405171566" y="6277140.813800805" end_time="16:13:00" />
			<leg mode="car">
			</leg>
			<act type="home" x="936547.7632105639" y="6276790.491992414" />
		</plan>

	</person>

<!-- ====================================================================== -->

	<person id="1673643745" employed="no">
		<plan selected="yes">
			<act type="home" x="936551.5480732508" y="6276841.577209784" end_time="06:19:00" />
			<leg mode="car">
			</leg>
			<act type="work" x="937184.733336883" y="6277448.937918624" end_time="15:36:00" />
			<leg mode="car">
			</leg>
			<act type="home" x="936551.5480732508" y="6276841.577209784" />
		</plan>

	</person>

<!-- ====================================================================== -->

	<person id="1673643767" employed="no">
		<plan selected="yes">
			<act type="home" x="936576.0828890216" y="6276850.589285164" end_time="06:21:00" />
			<leg mode="car">
			</leg>
			<act type="work" x="937099.3846832915" y="6276630.70417846" end_time="16:17:00" />
			<leg mode="car">
			</leg>
			<act type="home" x="936576.0828890216" y="6276850.589285164" />
		</plan>

	</person>

<!-- ====================================================================== -->

	<person id="1673643769" employed="no">
		<plan selected="yes">
			<act type="home" x="936579.901147556" y="6276916.712075721" end_time="06:08:00" />
			<leg mode="car">
			</leg>
			<act type="work" x="937197.0007447684" y="6276380.46369487" end_time="15:51:00" />
			<leg mode="car">
			</leg>
			<act type="home" x="936579.901147556" y="6276916.712075721" />
		</plan>

	</person>

<!-- ====================================================================== -->

	<person id="1673643772" employed="no">
		<plan selected="yes">
			<act type="home" x="936584.0199687151" y="6276986.501372817" end_time="05:53:00" />
			<leg mode="car">
			</leg>
			<act type="work" x="937092.7500416406" y="6276772.943188351" end_time="15:50:00" />
			<leg mode="car">
			</leg>
			<act type="home" x="936584.0199687151" y="6276986.501372817" />
		</plan>

	</person>

<!-- ====================================================================== -->

	<person id="1673643775" employed="no">
		<plan selected="yes">
			<act type="home" x="936586.5580531053" y="6277029.610808352" end_time="05:50:00" />
			<leg mode="car">
			</leg>
			<act type="work" x="936396.6024740156" y="6276701.000261371" end_time="16:00:00" />
			<leg mode="car">
			</leg>
			<act type="home" x="936586.5580531053" y="6277029.610808352" />
		</plan>

	</person>

<!-- ====================================================================== -->

	<person id="1673650348" employed="no">
		<plan selected="yes">
			<act type="home" x="936278.4368345385" y="6276872.975254113" end_time="06:22:00" />
			<leg mode="car">
			</leg>
			<act type="work" x="936190.5500965574" y="6276522.5966649335" end_time="15:52:00" />
			<leg mode="car">
			</leg>
			<act type="home" x="936278.4368345385" y="6276872.975254113" />
		</plan>

	</person>

<!-- ====================================================================== -->

	<person id="1673650358" employed="no">
		<plan selected="yes">
			<act type="home" x="936283.6799825549" y="6276882.411662125" end_time="05:40:00" />
			<leg mode="car">
			</leg>
			<act type="work" x="937097.9709257586" y="6276694.126765373" end_time="15:54:00" />
			<leg mode="car">
			</leg>
			<act type="home" x="936283.6799825549" y="6276882.411662125" />
		</plan>

	</person>

<!-- ====================================================================== -->

	<person id="1673650364" employed="no">
		<plan selected="yes">
			<act type="home" x="936271.7799289892" y="6276888.266992545" end_time="06:22:00" />
			<leg mode="car">
			</leg>
			<act type="work" x="937097.1360295777" y="6276717.920965468" end_time="15:41:00" />
			<leg mode="car">
			</leg>
			<act type="home" x="936271.7799289892" y="6276888.266992545" />
		</plan>

	</person>

<!-- ====================================================================== -->

	<person id="1673652347" employed="no">
		<plan selected="yes">
			<act type="home" x="936592.4468541682" y="6276732.906933295" end_time="05:33:00" />
			<leg mode="car">
			</leg>
			<act type="work" x="936405.1963387049" y="6276840.168543503" end_time="15:50:00" />
			<leg mode="car">
			</leg>
			<act type="home" x="936592.4468541682" y="6276732.906933295" />
		</plan>

	</person>

<!-- ====================================================================== -->

	<person id="1673652349" employed="no">
		<plan selected="yes">
			<act type="home" x="936472.9787766489" y="6276789.72826227" end_time="06:00:00" />
			<leg mode="car">
			</leg>
			<act type="work" x="936544.9245635488" y="6276739.305253817" end_time="15:47:00" />
			<leg mode="car">
			</leg>
			<act type="home" x="936472.9787766489" y="6276789.72826227" />
		</plan>

	</person>

<!-- ====================================================================== -->

	<person id="1673660514" employed="no">
		<plan selected="yes">
			<act type="home" x="936977.5677645169" y="6276700.847516955" end_time="05:58:00" />
			<leg mode="car">
			</leg>
			<act type="work" x="937005.5980122985" y="6276699.065498968" end_time="16:02:00" />
			<leg mode="car">
			</leg>
			<act type="home" x="936977.5677645169" y="6276700.847516955" />
		</plan>

	</person>

<!-- ====================================================================== -->

	<person id="1673660521" employed="no">
		<plan selected="yes">
			<act type="home" x="936945.3630358303" y="6276703.37628598" end_time="06:15:00" />
			<leg mode="car">
			</leg>
			<act type="work" x="937025.9472152153" y="6276409.772590461" end_time="15:54:00" />
			<leg mode="car">
			</leg>
			<act type="home" x="936945.3630358303" y="6276703.37628598" />
		</plan>

	</person>

<!-- ====================================================================== -->

	<person id="1673660522" employed="no">
		<plan selected="yes">
			<act type="home" x="936859.7806113083" y="6276709.095719383" end_time="06:07:00" />
			<leg mode="car">
			</leg>
			<act type="work" x="936251.8426081882" y="6276825.0975261815" end_time="16:22:00" />
			<leg mode="car">
			</leg>
			<act type="home" x="936859.7806113083" y="6276709.095719383" />
		</plan>

	</person>

<!-- ====================================================================== -->

	<person id="1673660523" employed="no">
		<plan selected="yes">
			<act type="home" x="936875.9108055242" y="6276708.1283372" end_time="05:37:00" />
			<leg mode="car">
			</leg>
			<act type="work" x="936407.7566869932" y="6276922.720178327" end_time="15:53:00" />
			<leg mode="car">
			</leg>
			<act type="home" x="936875.9108055242" y="6276708.1283372" />
		</plan>

	</person>

<!-- ====================================================================== -->

	<person id="1673660524" employed="no">
		<plan selected="yes">
			<act type="home" x="936760.0049517103" y="6276714.577553846" end_time="05:55:00" />
			<leg mode="car">
			</leg>
			<act type="work" x="936097.6094536941" y="6276636.355676786" end_time="16:16:00" />
			<leg mode="car">
			</leg>
			<act type="home" x="936760.0049517103" y="6276714.577553846" />
		</plan>

	</person>

<!-- ====================================================================== -->

	<person id="1673660527" employed="no">
		<plan selected="yes">
			<act type="home" x="936735.536927634" y="6276716.071057351" end_time="05:31:00" />
			<leg mode="car">
			</leg>
			<act type="work" x="936535.2175039515" y="6276428.966832531" end_time="15:50:00" />
			<leg mode="car">
			</leg>
			<act type="home" x="936735.536927634" y="6276716.071057351" />
		</plan>

	</person>

<!-- ====================================================================== -->

	<person id="1673685326" employed="no">
		<plan selected="yes">
			<act type="home" x="937062.782834719" y="6276695.620265261" end_time="06:08:00" />
			<leg mode="car">
			</leg>
			<act type="work" x="936021.956727751" y="6276754.681608891" end_time="15:52:00" />
			<leg mode="car">
			</leg>
			<act type="home" x="937062.782834719" y="6276695.620265261" />
		</plan>

	</person>

<!-- ====================================================================== -->

	<person id="1673685336" employed="no">
		<plan selected="yes">
			<act type="home" x="936735.1027816201" y="6276707.958621037" end_time="05:37:00" />
			<leg mode="car">
			</leg>
			<act type="work" x="936551.5480732508" y="6276841.577209784" end_time="16:07:00" />
			<leg mode="car">
			</leg>
			<act type="home" x="936735.1027816201" y="6276707.958621037" />
		</plan>

	</person>

<!-- ====================================================================== -->

	<person id="1673685340" employed="no">
		<plan selected="yes">
			<act type="home" x="936755.1402899626" y="6276714.883043175" end_time="06:01:00" />
			<leg mode="car">
			</leg>
			<act type="work" x="936083.6054617522" y="6276652.546476697" end_time="16:13:00" />
			<leg mode="car">
			</leg>
			<act type="home" x="936755.1402899626" y="6276714.883043175" />
		</plan>

	</person>

<!-- ====================================================================== -->

	<person id="1673713726" employed="no">
		<plan selected="yes">
			<act type="home" x="936731.3179189328" y="6276636.729049181" end_time="06:28:00" />
			<leg mode="car">
			</leg>
			<act type="work" x="936396.6024740156" y="6276701.000261371" end_time="15:55:00" />
			<leg mode="car">
			</leg>
			<act type="home" x="936731.3179189328" y="6276636.729049181" />
		</plan>

	</person>

<!-- ====================================================================== -->

	<person id="1673713727" employed="no">
		<plan selected="yes">
			<act type="home" x="936732.1862109611" y="6276652.987735827" end_time="05:36:00" />
			<leg mode="car">
			</leg>
			<act type="work" x="937242.3857011648" y="6277132.700956689" end_time="16:23:00" />
			<leg mode="car">
			</leg>
			<act type="home" x="936732.1862109611" y="6276652.987735827" />
		</plan>

	</person>

<!-- ====================================================================== -->

	<person id="1676923568" employed="no">
		<plan selected="yes">
			<act type="home" x="936689.250283362" y="6276421.4826003285" end_time="06:24:00" />
			<leg mode="car">
			</leg>
			<act type="work" x="936580.3686894173" y="6276924.654991943" end_time="15:53:00" />
			<leg mode="car">
			</leg>
			<act type="home" x="936689.250283362" y="6276421.4826003285" />
		</plan>

	</person>

<!-- ====================================================================== -->

	<person id="1676923585" employed="no">
		<plan selected="yes">
			<act type="home" x="936651.9471219972" y="6276641.786549608" end_time="06:26:00" />
			<leg mode="car">
			</leg>
			<act type="work" x="936461.0898550322" y="6276699.167328559" end_time="15:37:00" />
			<leg mode="car">
			</leg>
			<act type="home" x="936651.9471219972" y="6276641.786549608" />
		</plan>

	</person>

<!-- ====================================================================== -->

	<person id="1676923586" employed="no">
		<plan selected="yes">
			<act type="home" x="936701.4731634513" y="6276638.612882878" end_time="05:46:00" />
			<leg mode="car">
			</leg>
			<act type="work" x="936859.7806113083" y="6276709.095719383" end_time="16:23:00" />
			<leg mode="car">
			</leg>
			<act type="home" x="936701.4731634513" y="6276638.612882878" />
		</plan>

	</person>

<!-- ====================================================================== -->

	<person id="1676923597" employed="no">
		<plan selected="yes">
			<act type="home" x="936726.820611505" y="6276716.597177965" end_time="05:33:00" />
			<leg mode="car">
			</leg>
			<act type="work" x="936463.5500157787" y="6276653.802368137" end_time="16:22:00" />
			<leg mode="car">