<?xml version="1.0" encoding="utf-8"?>
<!DOCTYPE population SYSTEM "http://www.matsim.org/files/dtd/population_v5.dtd">

<population>

<!-- ====================================================================== -->

	<person id="1" employed="no">
		<plan selected="yes">
			<act type="home" x="1050.0" y="1050.0" end_time="05:47:00" />
			<leg mode="pt">
			</leg>
			<act type="work" x="3950.0" y="1050.0" end_time="15:32:00" />
			<leg mode="pt">
			</leg>
			<act type="home" x="1050.0" y="1050.0" />
		</plan>

	</person>

<!-- ====================================================================== -->

	<person id="2" employed="no">
		<plan selected="yes">
			<act type="home" x="1050.0" y="1050.0" end_time="06:06:00" />
			<leg mode="pt">
			</leg>
			<act type="work" x="3950.0" y="1050.0" end_time="15:35:00" />
			<leg mode="pt">
			</leg>
			<act type="home" x="1050.0" y="1050.0" />
		</plan>

	</person>

<!-- ====================================================================== -->

	<person id="3" employed="no">
		<plan selected="yes">
			<act type="home" x="1050.0" y="1050.0" end_time="05:43:00" />
			<leg mode="pt">
			</leg>
			<act type="work" x="3950.0" y="1050.0" end_time="16:05:00" />
			<leg mode="pt">
			</leg>
			<act type="home" x="1050.0" y="1050.0" />
		</plan>

	</person>

<!-- ====================================================================== -->

</population>
