<?xml version="1.0" encoding="UTF-8"?>
<!DOCTYPE transitSchedule SYSTEM "http://www.matsim.org/files/dtd/transitSchedule_v1.dtd">

<transitSchedule>
	<transitStops>
		<stopFacility id="1" x="1050.0" y="1050.0" linkRefId="11" isBlocking="false"/>
		<stopFacility id="3" x="3950.0" y="1050.0" linkRefId="33" isBlocking="false"/>
	</transitStops>
	<transitLine id="Tram 1">
		<transitRoute id="2">
			<transportMode>pt</transportMode>
			<routeProfile>
				<stop refId="1" arrivalOffset="00:00:00" departureOffset="00:00:00" awaitDeparture="true"/>
				<stop refId="3" arrivalOffset="00:09:00" departureOffset="00:00:00" awaitDeparture="true"/>
			</routeProfile>
			<route>
				<link refId="11"/>
				<link refId="12"/>
				<link refId="23"/>
				<link refId="33"/>
			</route>
			<departures>
				<departure id="0" departureTime="06:00:00" vehicleRefId="tr_1"/>
				<departure id="1" departureTime="06:05:00" vehicleRefId="tr_1"/>
				<departure id="2" departureTime="06:10:00" vehicleRefId="tr_1"/>
				<departure id="3" departureTime="06:15:00" vehicleRefId="tr_1"/>
				<departure id="4" departureTime="06:20:00" vehicleRefId="tr_1"/>
				<departure id="5" departureTime="06:25:00" vehicleRefId="tr_1"/>
				<departure id="6" departureTime="06:30:00" vehicleRefId="tr_1"/>
				<departure id="7" departureTime="06:35:00" vehicleRefId="tr_1"/>
				<departure id="8" departureTime="06:40:00" vehicleRefId="tr_1"/>
				<departure id="9" departureTime="06:45:00" vehicleRefId="tr_1"/>
			</departures>
		</transitRoute>
	</transitLine>
</transitSchedule>