<?xml version="1.0" encoding="utf-8"?>
<!DOCTYPE population SYSTEM "http://www.matsim.org/files/dtd/population_v5.dtd">

<population>

<!-- ====================================================================== -->

	<person id="1000" employed="no">
		<plan selected="yes">
			<act type="h9" x="730065.3125" y="220415.9531" end_time="06:39:11" />
			<leg mode="car">
			</leg>
			<act type="w5" x="690008.3124994001" y="255058.2343999948" end_time="15:51:19" />
			<leg mode="car">
			</leg>
			<act type="h9" x="730065.3125" y="220415.9531" />
		</plan>

	</person>

<!-- ====================================================================== -->

	<person id="1001" employed="no">
		<plan selected="yes">
			<act type="h9" x="731010.5" y="220146.2969" end_time="05:38:33" />
			<leg mode="car">
			</leg>
			<act type="w5" x="690008.3124994001" y="255058.2343999948" end_time="15:24:21" />
			<leg mode="car">
			</leg>
			<act type="h9" x="731010.5" y="220146.2969" />
		</plan>

	</person>

<!-- ====================================================================== -->

	<person id="10012" employed="no">
		<plan selected="yes">
			<act type="h9" x="644902.625" y="234228.0" end_time="05:48:39" />
			<leg mode="car">
			</leg>
			<act type="w5" x="690008.3124994001" y="255058.2343999948" end_time="16:59:46" />
			<leg mode="car">
			</leg>
			<act type="h9" x="644902.625" y="234228.0" />
		</plan>

	</person>

<!-- ====================================================================== -->

	<person id="10013" employed="no">
		<plan selected="yes">
			<act type="h9" x="643402.0" y="234966.0" end_time="06:32:10" />
			<leg mode="car">
			</leg>
			<act type="w5" x="690008.3124994001" y="255058.2343999948" end_time="15:41:12" />
			<leg mode="car">
			</leg>
			<act type="h9" x="643402.0" y="234966.0" />
		</plan>

	</person>

<!-- ====================================================================== -->

	<person id="10014" employed="no">
		<plan selected="yes">
			<act type="h9" x="641180.0" y="233040.7031" end_time="06:09:52" />
			<leg mode="car">
			</leg>
			<act type="w5" x="690008.3124994001" y="255058.2343999948" end_time="16:17:40" />
			<leg mode="car">
			</leg>
			<act type="h9" x="641180.0" y="233040.7031" />
		</plan>

	</person>

<!-- ====================================================================== -->

	<person id="1002" employed="no">
		<plan selected="yes">
			<act type="h9" x="731453.75" y="219936.6875" end_time="05:49:18" />
			<leg mode="car">
			</leg>
			<act type="w5" x="690008.3124994001" y="255058.2343999948" end_time="15:56:14" />
			<leg mode="car">
			</leg>
			<act type="h9" x="731453.75" y="219936.6875" />
		</plan>

	</person>

<!-- ====================================================================== -->

	<person id="1003" employed="no">
		<plan selected="yes">
			<act type="h9" x="731715.75" y="219880.8594" end_time="05:38:23" />
			<leg mode="car">
			</leg>
			<act type="w5" x="690008.3124994001" y="255058.2343999948" end_time="15:20:00" />
			<leg mode="car">
			</leg>
			<act type="h9" x="731715.75" y="219880.8594" />
		</plan>

	</person>

<!-- ====================================================================== -->

	<person id="1004" employed="no">
		<plan selected="yes">
			<act type="h9" x="732126.25" y="219839.0938" end_time="05:54:53" />
			<leg mode="car">
			</leg>
			<act type="w5" x="690008.3124994001" y="255058.2343999948" end_time="16:26:35" />
			<leg mode="car">
			</leg>
			<act type="h9" x="732126.25" y="219839.0938" />
		</plan>

	</person>

<!-- ====================================================================== -->

	<person id="1005" employed="no">
		<plan selected="yes">
			<act type="h9" x="732362.1875" y="219747.7031" end_time="06:00:52" />
			<leg mode="car">
			</leg>
			<act type="w5" x="690008.3124994001" y="255058.2343999948" end_time="16:05:53" />
			<leg mode="car">
			</leg>
			<act type="h9" x="732362.1875" y="219747.7031" />
		</plan>

	</person>

<!-- ====================================================================== -->

	<person id="10052" employed="no">
		<plan selected="yes">
			<act type="h9" x="641915.125" y="247079.5938" end_time="06:05:54" />
			<leg mode="car">
			</leg>
			<act type="w5" x="690008.3124994001" y="255058.2343999948" end_time="15:18:06" />
			<leg mode="car">
			</leg>
			<act type="h9" x="641915.125" y="247079.5938" />
		</plan>

	</person>

<!-- ====================================================================== -->

	<person id="1006" employed="no">
		<plan selected="yes">
			<act type="h9" x="732524.75" y="219652.2344" end_time="05:34:42" />
			<leg mode="car">
			</leg>
			<act type="w5" x="690008.3124994001" y="255058.2343999948" end_time="15:36:01" />
			<leg mode="car">
			</leg>
			<act type="h9" x="732524.75" y="219652.2344" />
		</plan>

	</person>

<!-- ====================================================================== -->

	<person id="1007" employed="no">
		<plan selected="yes">
			<act type="h9" x="732671.625" y="219607.7031" end_time="06:39:17" />
			<leg mode="car">
			</leg>
			<act type="w5" x="690008.3124994001" y="255058.2343999948" end_time="16:39:12" />
			<leg mode="car">
			</leg>
			<act type="h9" x="732671.625" y="219607.7031" />
		</plan>

	</person>

<!-- ====================================================================== -->

	<person id="1008" employed="no">
		<plan selected="yes">
			<act type="h9" x="732752.0" y="219617.0938" end_time="06:59:09" />
			<leg mode="car">
			</leg>
			<act type="w5" x="690008.3124994001" y="255058.2343999948" end_time="16:09:10" />
			<leg mode="car">
			</leg>
			<act type="h9" x="732752.0" y="219617.0938" />
		</plan>

	</person>

<!-- ====================================================================== -->

	<person id="10082" employed="no">
		<plan selected="yes">
			<act type="h9" x="643177.0" y="226142.7031" end_time="05:35:14" />
			<leg mode="car">
			</leg>
			<act type="w5" x="690008.3124994001" y="255058.2343999948" end_time="16:25:09" />
			<leg mode="car">
			</leg>
			<act type="h9" x="643177.0" y="226142.7031" />
		</plan>

	</person>

<!-- ====================================================================== -->

	<person id="10083" employed="no">
		<plan selected="yes">
			<act type="h9" x="641366.125" y="241876.5938" end_time="05:12:15" />
			<leg mode="car">
			</leg>
			<act type="w5" x="690008.3124994001" y="255058.2343999948" end_time="16:12:05" />
			<leg mode="car">
			</leg>
			<act type="h9" x="641366.125" y="241876.5938" />
		</plan>

	</person>

<!-- ====================================================================== -->

	<person id="10084" employed="no">
		<plan selected="yes">
			<act type="h9" x="640461.1875" y="241166.7969" end_time="05:45:06" />
			<leg mode="car">
			</leg>
			<act type="w5" x="690008.3124994001" y="255058.2343999948" end_time="15:51:10" />
			<leg mode="car">
			</leg>
			<act type="h9" x="640461.1875" y="241166.7969" />
		</plan>

	</person>

<!-- ====================================================================== -->

	<person id="1009" employed="no">
		<plan selected="yes">
			<act type="h9" x="733701.0" y="219344.9063" end_time="06:49:23" />
			<leg mode="car">
			</leg>
			<act type="w5" x="690008.3124994001" y="255058.2343999948" end_time="15:33:44" />
			<leg mode="car">
			</leg>
			<act type="h9" x="733701.0" y="219344.9063" />
		</plan>

	</person>

<!-- ====================================================================== -->

	<person id="1010" employed="no">
		<plan selected="yes">
			<act type="h9" x="732620.0" y="219379.2969" end_time="05:52:22" />
			<leg mode="car">
			</leg>
			<act type="w5" x="690008.3124994001" y="255058.2343999948" end_time="16:41:07" />
			<leg mode="car">
			</leg>
			<act type="h9" x="732620.0" y="219379.2969" />
		</plan>

	</person>

<!-- ====================================================================== -->

	<person id="10101" employed="no">
		<plan selected="yes">
			<act type="h9" x="643117.875" y="239439.7031" end_time="05:24:43" />
			<leg mode="car">
			</leg>
			<act type="w5" x="690008.3124994001" y="255058.2343999948" end_time="15:25:13" />
			<leg mode="car">
			</leg>
			<act type="h9" x="643117.875" y="239439.7031" />
		</plan>

	</person>

<!-- ====================================================================== -->

	<person id="1011" employed="no">
		<plan selected="yes">
			<act type="h9" x="732852.125" y="219377.0938" end_time="06:36:48" />
			<leg mode="car">
			</leg>
			<act type="w5" x="690008.3124994001" y="255058.2343999948" end_time="15:40:34" />
			<leg mode="car">
			</leg>
			<act type="h9" x="732852.125" y="219377.0938" />
		</plan>

	</person>

<!-- ====================================================================== -->

	<person id="1012" employed="no">
		<plan selected="yes">
			<act type="h9" x="734018.875" y="219275.0938" end_time="06:05:52" />
			<leg mode="car">
			</leg>
			<act type="w5" x="690008.3124994001" y="255058.2343999948" end_time="15:29:38" />
			<leg mode="car">
			</leg>
			<act type="h9" x="734018.875" y="219275.0938" />
		</plan>

	</person>

<!-- ====================================================================== -->

	<person id="10120" employed="no">
		<plan selected="yes">
			<act type="h9" x="642856.125" y="255335.2031" end_time="06:38:12" />
			<leg mode="car">
			</leg>
			<act type="w5" x="690008.3124994001" y="255058.2343999948" end_time="16:58:37" />
			<leg mode="car">
			</leg>
			<act type="h9" x="642856.125" y="255335.2031" />
		</plan>

	</person>

<!-- ====================================================================== -->

	<person id="10122" employed="no">
		<plan selected="yes">
			<act type="h9" x="645652.1875" y="231195.2969" end_time="06:05:13" />
			<leg mode="car">
			</leg>
			<act type="w5" x="690008.3124994001" y="255058.2343999948" end_time="16:25:01" />
			<leg mode="car">
			</leg>
			<act type="h9" x="645652.1875" y="231195.2969" />
		</plan>

	</person>

<!-- ====================================================================== -->

	<person id="10123" employed="no">
		<plan selected="yes">
			<act type="h9" x="646947.125" y="231936.7969" end_time="05:26:16" />
			<leg mode="car">
			</leg>
			<act type="w5" x="690008.3124994001" y="255058.2343999948" end_time="15:52:27" />
			<leg mode="car">
			</leg>
			<act type="h9" x="646947.125" y="231936.7969" />
		</plan>

	</person>

<!-- ====================================================================== -->

	<person id="10124" employed="no">
		<plan selected="yes">
			<act type="h9" x="648544.3125" y="251647.2969" end_time="06:28:00" />
			<leg mode="car">
			</leg>
			<act type="w5" x="690008.3124994001" y="255058.2343999948" end_time="16:33:43" />
			<leg mode="car">
			</leg>
			<act type="h9" x="648544.3125" y="251647.2969" />
		</plan>

	</person>

<!-- ====================================================================== -->

	<person id="10125" employed="no">
		<plan selected="yes">
			<act type="h9" x="649836.875" y="254189.2031" end_time="05:35:54" />
			<leg mode="car">
			</leg>
			<act type="w5" x="690008.3124994001" y="255058.2343999948" end_time="15:11:48" />
			<leg mode="car">
			</leg>
			<act type="h9" x="649836.875" y="254189.2031" />
		</plan>

	</person>

<!-- ====================================================================== -->

	<person id="10126" employed="no">
		<plan selected="yes">
			<act type="h9" x="648534.5" y="258674.0938" end_time="06:17:25" />
			<leg mode="car">
			</leg>
			<act type="w5" x="690008.3124994001" y="255058.2343999948" end_time="15:17:33" />
			<leg mode="car">
			</leg>
			<act type="h9" x="648534.5" y="258674.0938" />
		</plan>

	</person>

<!-- ====================================================================== -->

	<person id="1013" employed="no">
		<plan selected="yes">
			<act type="h9" x="735399.125" y="219143.1875" end_time="05:05:34" />
			<leg mode="car">
			</leg>
			<act type="w5" x="690008.3124994001" y="255058.2343999948" end_time="15:57:41" />
			<leg mode="car">
			</leg>
			<act type="h9" x="735399.125" y="219143.1875" />
		</plan>

	</person>

<!-- ====================================================================== -->

	<person id="1014" employed="no">
		<plan selected="yes">
			<act type="h9" x="736448.875" y="219146.75" end_time="06:41:44" />
			<leg mode="car">
			</leg>
			<act type="w5" x="690008.3124994001" y="255058.2343999948" end_time="16:56:19" />
			<leg mode="car">
			</leg>
			<act type="h9" x="736448.875" y="219146.75" />
		</plan>

	</person>

<!-- ====================================================================== -->

	<person id="10142" employed="no">
		<plan selected="yes">
			<act type="h9" x="652527.0" y="225493.4063" end_time="06:16:23" />
			<leg mode="car">
			</leg>
			<act type="w5" x="690008.3124994001" y="255058.2343999948" end_time="16:40:04" />
			<leg mode="car">
			</leg>
			<act type="h9" x="652527.0" y="225493.4063" />
		</plan>

	</person>

<!-- ====================================================================== -->

	<person id="10147" employed="no">
		<plan selected="yes">
			<act type="h9" x="647616.1875" y="204722.7031" end_time="06:35:41" />
			<leg mode="car">
			</leg>
			<act type="w5" x="690008.3124994001" y="255058.2343999948" end_time="15:40:16" />
			<leg mode="car">
			</leg>
			<act type="h9" x="647616.1875" y="204722.7031" />
		</plan>

	</person>

<!-- ====================================================================== -->

	<person id="10148" employed="no">
		<plan selected="yes">
			<act type="h9" x="647822.875" y="204624.7031" end_time="06:15:19" />
			<leg mode="car">
			</leg>
			<act type="w5" x="690008.3124994001" y="255058.2343999948" end_time="15:04:08" />
			<leg mode="car">
			</leg>
			<act type="h9" x="647822.875" y="204624.7031" />
		</plan>

	</person>

<!-- ====================================================================== -->

	<person id="10149" employed="no">
		<plan selected="yes">
			<act type="h9" x="650664.3125" y="202660.7969" end_time="06:20:29" />
			<leg mode="car">
			</leg>
			<act type="w5" x="690008.3124994001" y="255058.2343999948" end_time="16:53:20" />
			<leg mode="car">
			</leg>
			<act type="h9" x="650664.3125" y="202660.7969" />
		</plan>

	</person>

<!-- ====================================================================== -->

	<person id="1015" employed="no">
		<plan selected="yes">
			<act type="h9" x="737739.625" y="219174.125" end_time="05:33:35" />
			<leg mode="car">
			</leg>
			<act type="w5" x="690008.3124994001" y="255058.2343999948" end_time="16:12:39" />
			<leg mode="car">
			</leg>
			<act type="h9" x="737739.625" y="219174.125" />
		</plan>

	</person>

<!-- ====================================================================== -->

	<person id="10150" employed="no">
		<plan selected="yes">
			<act type="h9" x="649595.5" y="206065.7969" end_time="05:42:19" />
			<leg mode="car">
			</leg>
			<act type="w5" x="690008.3124994001" y="255058.2343999948" end_time="15:44:10" />
			<leg mode="car">
			</leg>
			<act type="h9" x="649595.5" y="206065.7969" />
		</plan>

	</person>

<!-- ====================================================================== -->

	<person id="10151" employed="no">
		<plan selected="yes">
			<act type="h9" x="650094.1875" y="211396.5938" end_time="06:04:22" />
			<leg mode="car">
			</leg>
			<act type="w5" x="690008.3124994001" y="255058.2343999948" end_time="15:04:12" />
			<leg mode="car">
			</leg>
			<act type="h9" x="650094.1875" y="211396.5938" />
		</plan>

	</person>

<!-- ====================================================================== -->

	<person id="10152" employed="no">
		<plan selected="yes">
			<act type="h9" x="650305.0" y="211868.9063" end_time="05:27:59" />
			<leg mode="car">
			</leg>
			<act type="w5" x="690008.3124994001" y="255058.2343999948" end_time="15:55:29" />
			<leg mode="car">
			</leg>
			<act type="h9" x="650305.0" y="211868.9063" />
		</plan>

	</person>

<!-- ====================================================================== -->

	<person id="10153" employed="no">
		<plan selected="yes">
			<act type="h9" x="650288.3125" y="210824.0" end_time="05:39:40" />
			<leg mode="car">
			</leg>
			<act type="w5" x="690008.3124994001" y="255058.2343999948" end_time="15:12:41" />
			<leg mode="car">
			</leg>
			<act type="h9" x="650288.3125" y="210824.0" />
		</plan>

	</person>

<!-- ====================================================================== -->

	<person id="10154" employed="no">
		<plan selected="yes">
			<act type="h9" x="650448.125" y="212223.5938" end_time="05:59:31" />
			<leg mode="car">
			</leg>
			<act type="w5" x="690008.3124994001" y="255058.2343999948" end_time="16:10:34" />
			<leg mode="car">
			</leg>
			<act type="h9" x="650448.125" y="212223.5938" />
		</plan>

	</person>

<!-- ====================================================================== -->

	<person id="10155" employed="no">
		<plan selected="yes">
			<act type="h9" x="647424.5" y="208976.7031" end_time="05:05:49" />
			<leg mode="car">
			</leg>
			<act type="w5" x="690008.3124994001" y="255058.2343999948" end_time="16:32:56" />
			<leg mode="car">
			</leg>
			<act type="h9" x="647424.5" y="208976.7031" />
		</plan>

	</person>

<!-- ====================================================================== -->

	<person id="10156" employed="no">
		<plan selected="yes">
			<act type="h9" x="649006.875" y="214451.5938" end_time="05:16:27" />
			<leg mode="car">
			</leg>
			<act type="w5" x="690008.3124994001" y="255058.2343999948" end_time="15:16:25" />
			<leg mode="car">
			</leg>
			<act type="h9" x="649006.875" y="214451.5938" />
		</plan>

	</person>

<!-- ====================================================================== -->

	<person id="10157" employed="no">
		<plan selected="yes">
			<act type="h9" x="648949.5" y="214661.0" end_time="05:21:01" />
			<leg mode="car">
			</leg>
			<act type="w5" x="690008.3124994001" y="255058.2343999948" end_time="15:30:31" />
			<leg mode="car">
			</leg>
			<act type="h9" x="648949.5" y="214661.0" />
		</plan>

	</person>

<!-- ====================================================================== -->

	<person id="10158" employed="no">
		<plan selected="yes">
			<act type="h9" x="649011.875" y="214783.2031" end_time="05:04:18" />
			<leg mode="car">
			</leg>
			<act type="w5" x="690008.3124994001" y="255058.2343999948" end_time="15:58:34" />
			<leg mode="car">
			</leg>
			<act type="h9" x="649011.875" y="214783.2031" />
		</plan>

	</person>

<!-- ====================================================================== -->

	<person id="10159" employed="no">
		<plan selected="yes">
			<act type="h9" x="648946.0" y="215874.5" end_time="05:45:21" />
			<leg mode="car">
			</leg>
			<act type="w5" x="690008.3124994001" y="255058.2343999948" end_time="15:41:07" />
			<leg mode="car">
			</leg>
			<act type="h9" x="648946.0" y="215874.5" />
		</plan>

	</person>

<!-- ====================================================================== -->

	<person id="1016" employed="no">
		<plan selected="yes">
			<act type="h9" x="738016.125" y="219344.875" end_time="05:02:46" />
			<leg mode="car">
			</leg>
			<act type="w5" x="690008.3124994001" y="255058.2343999948" end_time="16:51:27" />
			<leg mode="car">
			</leg>
			<act type="h9" x="738016.125" y="219344.875" />
		</plan>

	</person>

<!-- ====================================================================== -->

	<person id="10160" employed="no">
		<plan selected="yes">
			<act type="h9" x="648114.875" y="216057.0938" end_time="06:05:01" />
			<leg mode="car">
			</leg>
			<act type="w5" x="690008.3124994001" y="255058.2343999948" end_time="16:25:00" />
			<leg mode="car">
			</leg>
			<act type="h9" x="648114.875" y="216057.0938" />
		</plan>

	</person>

<!-- ====================================================================== -->

	<person id="10161" employed="no">
		<plan selected="yes">
			<act type="h9" x="648125.875" y="216060.0938" end_time="05:04:16" />
			<leg mode="car">
			</leg>
			<act type="w5" x="690008.3124994001" y="255058.2343999948" end_time="15:30:25" />
			<leg mode="car">
			</leg>
			<act type="h9" x="648125.875" y="216060.0938" />
		</plan>

	</person>

<!-- ====================================================================== -->

	<person id="10162" employed="no">
		<plan selected="yes">
			<act type="h9" x="652756.0" y="212835.2031" end_time="06:06:52" />
			<leg mode="car">
			</leg>
			<act type="w5" x="690008.3124994001" y="255058.2343999948" end_time="16:37:19" />
			<leg mode="car">
			</leg>
			<act type="h9" x="652756.0" y="212835.2031" />
		</plan>

	</person>

<!-- ====================================================================== -->

	<person id="10163" employed="no">
		<plan selected="yes">
			<act type="h9" x="651335.625" y="217082.7031" end_time="05:15:49" />
			<leg mode="car">
			</leg>
			<act type="w5" x="690008.3124994001" y="255058.2343999948" end_time="16:28:36" />
			<leg mode="car">
			</leg>
			<act type="h9" x="651335.625" y="217082.7031" />
		</plan>

	</person>

<!-- ====================================================================== -->

	<person id="10164" employed="no">
		<plan selected="yes">
			<act type="h9" x="651809.3125" y="217614.7969" end_time="06:58:34" />
			<leg mode="car">
			</leg>
			<act type="w5" x="690008.3124994001" y="255058.2343999948" end_time="15:42:25" />
			<leg mode="car">
			</leg>
			<act type="h9" x="651809.3125" y="217614.7969" />
		</plan>

	</person>

<!-- ====================================================================== -->

	<person id="10165" employed="no">
		<plan selected="yes">
			<act type="h9" x="652855.8125" y="218348.9063" end_time="05:42:13" />
			<leg mode="car">
			</leg>
			<act type="w5" x="690008.3124994001" y="255058.2343999948" end_time="16:51:08" />
			<leg mode="car">
			</leg>
			<act type="h9" x="652855.8125" y="218348.9063" />
		</plan>

	</person>

<!-- ====================================================================== -->

	<person id="10166" employed="no">
		<plan selected="yes">
			<act type="h9" x="653166.8125" y="219397.2031" end_time="05:11:16" />
			<leg mode="car">
			</leg>
			<act type="w5" x="690008.3124994001" y="255058.2343999948" end_time="16:23:16" />
			<leg mode="car">
			</leg>
			<act type="h9" x="653166.8125" y="219397.2031" />
		</plan>

	</person>

<!-- ====================================================================== -->

	<person id="10167" employed="no">
		<plan selected="yes">
			<act type="h9" x="649634.625" y="218348.2969" end_time="05:17:50" />
			<leg mode="car">
			</leg>
			<act type="w5" x="690008.3124994001" y="255058.2343999948" end_time="15:23:38" />
			<leg mode="car">
			</leg>
			<act type="h9" x="649634.625" y="218348.2969" />
		</plan>

	</person>

<!-- ====================================================================== -->

	<person id="10168" employed="no">
		<plan selected="yes">
			<act type="h9" x="650621.8125" y="219198.9063" end_time="05:08:26" />
			<leg mode="car">
			</leg>
			<act type="w5" x="690008.3124994001" y="255058.2343999948" end_time="15:51:52" />
			<leg mode="car">
			</leg>
			<act type="h9" x="650621.8125" y="219198.9063" />
		</plan>

	</person>

<!-- ====================================================================== -->

	<person id="10169" employed="no">
		<plan selected="yes">
			<act type="h9" x="651612.0" y="220630.7969" end_time="05:47:26" />
			<leg mode="car">
			</leg>
			<act type="w5" x="690008.3124994001" y="255058.2343999948" end_time="15:49:25" />
			<leg mode="car">
			</leg>
			<act type="h9" x="651612.0" y="220630.7969" />
		</plan>

	</person>

<!-- ====================================================================== -->

	<person id="1017" employed="no">
		<plan selected="yes">
			<act type="h9" x="738246.3125" y="219481.9531" end_time="06:33:38" />
			<leg mode="car">
			</leg>
			<act type="w5" x="690008.3124994001" y="255058.2343999948" end_time="15:56:47" />
			<leg mode="car">
			</leg>
			<act type="h9" x="738246.3125" y="219481.9531" />
		</plan>

	</person>

<!-- ====================================================================== -->

	<person id="10170" employed="no">
		<plan selected="yes">
			<act type="h9" x="650485.3125" y="224051.7969" end_time="06:32:41" />
			<leg mode="car">
			</leg>
			<act type="w5" x="690008.3124994001" y="255058.2343999948" end_time="15:00:53" />
			<leg mode="car">
			</leg>
			<act type="h9" x="650485.3125" y="224051.7969" />
		</plan>

	</person>

<!-- ====================================================================== -->

	<person id="10171" employed="no">
		<plan selected="yes">
			<act type="h9" x="650004.3125" y="224688.2969" end_time="06:24:09" />
			<leg mode="car">
			</leg>
			<act type="w5" x="690008.3124994001" y="255058.2343999948" end_time="15:26:43" />
			<leg mode="car">
			</leg>
			<act type="h9" x="650004.3125" y="224688.2969" />
		</plan>

	</person>

<!-- ====================================================================== -->

	<person id="10172" employed="no">
		<plan selected="yes">
			<act type="h9" x="649223.125" y="221129.2969" end_time="06:21:53" />
			<leg mode="car">
			</leg>
			<act type="w5" x="690008.3124994001" y="255058.2343999948" end_time="16:36:21" />
			<leg mode="car">
			</leg>
			<act type="h9" x="649223.125" y="221129.2969" />
		</plan>

	</person>

<!-- ====================================================================== -->

	<person id="10173" employed="no">
		<plan selected="yes">
			<act type="h9" x="647455.0" y="230373.7969" end_time="05:34:22" />
			<leg mode="car">
			</leg>
			<act type="w5" x="690008.3124994001" y="255058.2343999948" end_time="15:26:19" />
			<leg mode="car">
			</leg>
			<act type="h9" x="647455.0" y="230373.7969" />
		</plan>

	</person>

<!-- ====================================================================== -->

	<person id="10174" employed="no">
		<plan selected="yes">
			<act type="h9" x="647978.0" y="227875.0938" end_time="06:24:21" />
			<leg mode="car">
			</leg>
			<act type="w5" x="690008.3124994001" y="255058.2343999948" end_time="15:51:32" />
			<leg mode="car">
			</leg>
			<act type="h9" x="647978.0" y="227875.0938" />
		</plan>

	</person>

<!-- ====================================================================== -->

	<person id="10175" employed="no">
		<plan selected="yes">
			<act type="h9" x="651303.125" y="230798.2031" end_time="05:53:45" />
			<leg mode="car">
			</leg>
			<act type="w5" x="690008.3124994001" y="255058.2343999948" end_time="15:50:55" />
			<leg mode="car">
			</leg>
			<act type="h9" x="651303.125" y="230798.2031" />
		</plan>

	</person>

<!-- ====================================================================== -->

	<person id="10176" employed="no">
		<plan selected="yes">
			<act type="h9" x="652027.3125" y="229052.9063" end_time="06:59:01" />
			<leg mode="car">
			</leg>
			<act type="w5" x="690008.3124994001" y="255058.2343999948" end_time="16:28:39" />
			<leg mode="car">
			</leg>
			<act type="h9" x="652027.3125" y="229052.9063" />
		</plan>

	</person>

<!-- ====================================================================== -->

	<person id="10177" employed="no">
		<plan selected="yes">
			<act type="h9" x="652536.5" y="229708.0938" end_time="05:49:41" />
			<leg mode="car">
			</leg>
			<act type="w5" x="690008.3124994001" y="255058.2343999948" end_time="16:11:33" />
			<leg mode="car">
			</leg>
			<act type="h9" x="652536.5" y="229708.0938" />
		</plan>

	</person>

<!-- ====================================================================== -->

	<person id="10178" employed="no">
		<plan selected="yes">
			<act type="h9" x="659109.625" y="218926.4063" end_time="06:58:11" />
			<leg mode="car">
			</leg>
			<act type="w5" x="690008.3124994001" y="255058.2343999948" end_time="16:31:06" />
			<leg mode="car">
			</leg>
			<act type="h9" x="659109.625" y="218926.4063" />
		</plan>

	</person>

<!-- ====================================================================== -->

	<person id="10179" employed="no">
		<plan selected="yes">
			<act type="h9" x="660029.125" y="218477.2969" end_time="06:32:55" />
			<leg mode="car">
			</leg>
			<act type="w5" x="690008.3124994001" y="255058.2343999948" end_time="16:19:49" />
			<leg mode="car">
			</leg>
			<act type="h9" x="660029.125" y="218477.2969" />
		</plan>

	</person>

<!-- ====================================================================== -->

	<person id="10180" employed="no">
		<plan selected="yes">
			<act type="h9" x="664743.8125" y="222243.0938" end_time="05:23:16" />
			<leg mode="car">
			</leg>
			<act type="w5" x="690008.3124994001" y="255058.2343999948" end_time="16:33:17" />
			<leg mode="car">
			</leg>
			<act type="h9" x="664743.8125" y="222243.0938" />
		</plan>

	</person>

<!-- ====================================================================== -->

	<person id="10181" employed="no">
		<plan selected="yes">
			<act type="h9" x="664860.875" y="222554.0938" end_time="05:17:03" />
			<leg mode="car">
			</leg>
			<act type="w5" x="690008.3124994001" y="255058.2343999948" end_time="16:34:07" />
			<leg mode="car">
			</leg>
			<act type="h9" x="664860.875" y="222554.0938" />
		</plan>

	</person>

<!-- ====================================================================== -->

	<person id="10182" employed="no">
		<plan selected="yes">
			<act type="h9" x="664403.0" y="224277.0938" end_time="06:48:04" />
			<leg mode="car">
			</leg>
			<act type="w5" x="690008.3124994001" y="255058.2343999948" end_time="16:47:43" />
			<leg mode="car">
			</leg>
			<act type="h9" x="664403.0" y="224277.0938" />
		</plan>

	</person>

<!-- ====================================================================== -->

	<person id="10183" employed="no">
		<plan selected="yes">