<?xml version="1.0" encoding="utf-8"?>
<!DOCTYPE population SYSTEM "http://www.matsim.org/files/dtd/population_v5.dtd">

<population>

<!-- ====================================================================== -->

	<person id="1000" employed="no">
		<plan selected="yes">
			<act type="home" x="730065.3125" y="220415.9531" end_time="05:55:00" />
			<leg mode="car">
			</leg>
			<act type="work" x="646538.625" y="243523.2031" end_time="15:27:00" />
			<leg mode="car">
			</leg>
			<act type="home" x="730065.3125" y="220415.9531" />
		</plan>

	</person>

<!-- ====================================================================== -->

	<person id="1001" employed="no">
		<plan selected="yes">
			<act type="home" x="731010.5" y="220146.2969" end_time="05:44:00" />
			<leg mode="car">
			</leg>
			<act type="work" x="717334.625" y="231708.7969" end_time="15:56:00" />
			<leg mode="car">
			</leg>
			<act type="home" x="731010.5" y="220146.2969" />
		</plan>

	</person>

<!-- ====================================================================== -->

	<person id="10012" employed="no">
		<plan selected="yes">
			<act type="home" x="644902.625" y="234228.0" end_time="06:42:00" />
			<leg mode="car">
			</leg>
			<act type="work" x="717993.875" y="250855.2031" end_time="16:58:00" />
			<leg mode="car">
			</leg>
			<act type="home" x="644902.625" y="234228.0" />
		</plan>

	</person>

<!-- ====================================================================== -->

	<person id="10013" employed="no">
		<plan selected="yes">
			<act type="home" x="643402.0" y="234966.0" end_time="05:47:00" />
			<leg mode="car">
			</leg>
			<act type="work" x="677914.125" y="284226.4063" end_time="15:58:00" />
			<leg mode="car">
			</leg>
			<act type="home" x="643402.0" y="234966.0" />
		</plan>

	</person>

<!-- ====================================================================== -->

	<person id="10014" employed="no">
		<plan selected="yes">
			<act type="home" x="641180.0" y="233040.7031" end_time="05:08:00" />
			<leg mode="car">
			</leg>
			<act type="work" x="691082.3125" y="269788.6875" end_time="15:22:00" />
			<leg mode="car">
			</leg>
			<act type="home" x="641180.0" y="233040.7031" />
		</plan>

	</person>

<!-- ====================================================================== -->

	<person id="1002" employed="no">
		<plan selected="yes">
			<act type="home" x="731453.75" y="219936.6875" end_time="06:50:00" />
			<leg mode="car">
			</leg>
			<act type="work" x="685217.1875" y="283677.3125" end_time="16:07:00" />
			<leg mode="car">
			</leg>
			<act type="home" x="731453.75" y="219936.6875" />
		</plan>

	</person>

<!-- ====================================================================== -->

	<person id="1003" employed="no">
		<plan selected="yes">
			<act type="home" x="731715.75" y="219880.8594" end_time="06:09:00" />
			<leg mode="car">
			</leg>
			<act type="work" x="694863.8125" y="288612.0938" end_time="15:13:00" />
			<leg mode="car">
			</leg>
			<act type="home" x="731715.75" y="219880.8594" />
		</plan>

	</person>

<!-- ====================================================================== -->

	<person id="1004" employed="no">
		<plan selected="yes">
			<act type="home" x="732126.25" y="219839.0938" end_time="06:49:00" />
			<leg mode="car">
			</leg>
			<act type="work" x="712971.3125" y="225820.4063" end_time="16:31:00" />
			<leg mode="car">
			</leg>
			<act type="home" x="732126.25" y="219839.0938" />
		</plan>

	</person>

<!-- ====================================================================== -->

	<person id="1005" employed="no">
		<plan selected="yes">
			<act type="home" x="732362.1875" y="219747.7031" end_time="06:25:00" />
			<leg mode="car">
			</leg>
			<act type="work" x="721645.375" y="281064.5938" end_time="15:50:00" />
			<leg mode="car">
			</leg>
			<act type="home" x="732362.1875" y="219747.7031" />
		</plan>

	</person>

<!-- ====================================================================== -->

	<person id="10052" employed="no">
		<plan selected="yes">
			<act type="home" x="641915.125" y="247079.5938" end_time="06:00:00" />
			<leg mode="car">
			</leg>
			<act type="work" x="730084.8125" y="274754.0" end_time="15:37:00" />
			<leg mode="car">
			</leg>
			<act type="home" x="641915.125" y="247079.5938" />
		</plan>

	</person>

<!-- ====================================================================== -->

	<person id="1006" employed="no">
		<plan selected="yes">
			<act type="home" x="732524.75" y="219652.2344" end_time="05:34:00" />
			<leg mode="car">
			</leg>
			<act type="work" x="663829.1875" y="256776.2969" end_time="15:33:00" />
			<leg mode="car">
			</leg>
			<act type="home" x="732524.75" y="219652.2344" />
		</plan>

	</person>

<!-- ====================================================================== -->

	<person id="1007" employed="no">
		<plan selected="yes">
			<act type="home" x="732671.625" y="219607.7031" end_time="05:47:00" />
			<leg mode="car">
			</leg>
			<act type="work" x="661048.6875" y="255458.375" end_time="15:50:00" />
			<leg mode="car">
			</leg>
			<act type="home" x="732671.625" y="219607.7031" />
		</plan>

	</person>

<!-- ====================================================================== -->

	<person id="1008" employed="no">
		<plan selected="yes">
			<act type="home" x="732752.0" y="219617.0938" end_time="06:39:00" />
			<leg mode="car">
			</leg>
			<act type="work" x="655297.625" y="224911.7031" end_time="16:30:00" />
			<leg mode="car">
			</leg>
			<act type="home" x="732752.0" y="219617.0938" />
		</plan>

	</person>

<!-- ====================================================================== -->

	<person id="10082" employed="no">
		<plan selected="yes">
			<act type="home" x="643177.0" y="226142.7031" end_time="06:31:00" />
			<leg mode="car">
			</leg>
			<act type="work" x="640975.125" y="266935.1875" end_time="16:28:00" />
			<leg mode="car">
			</leg>
			<act type="home" x="643177.0" y="226142.7031" />
		</plan>

	</person>

<!-- ====================================================================== -->

	<person id="10083" employed="no">
		<plan selected="yes">
			<act type="home" x="641366.125" y="241876.5938" end_time="06:24:00" />
			<leg mode="car">
			</leg>
			<act type="work" x="661211.875" y="255569.5" end_time="15:15:00" />
			<leg mode="car">
			</leg>
			<act type="home" x="641366.125" y="241876.5938" />
		</plan>

	</person>

<!-- ====================================================================== -->

	<person id="10084" employed="no">
		<plan selected="yes">
			<act type="home" x="640461.1875" y="241166.7969" end_time="05:59:00" />
			<leg mode="car">
			</leg>
			<act type="work" x="665855.375" y="258234.5" end_time="15:48:00" />
			<leg mode="car">
			</leg>
			<act type="home" x="640461.1875" y="241166.7969" />
		</plan>

	</person>

<!-- ====================================================================== -->

	<person id="1009" employed="no">
		<plan selected="yes">
			<act type="home" x="733701.0" y="219344.9063" end_time="05:28:00" />
			<leg mode="car">
			</leg>
			<act type="work" x="694475.6875" y="247904.0" end_time="15:06:00" />
			<leg mode="car">
			</leg>
			<act type="home" x="733701.0" y="219344.9063" />
		</plan>

	</person>

<!-- ====================================================================== -->

	<person id="1010" employed="no">
		<plan selected="yes">
			<act type="home" x="732620.0" y="219379.2969" end_time="06:45:00" />
			<leg mode="car">
			</leg>
			<act type="work" x="690553.125" y="215910.0938" end_time="16:38:00" />
			<leg mode="car">
			</leg>
			<act type="home" x="732620.0" y="219379.2969" />
		</plan>

	</person>

<!-- ====================================================================== -->

	<person id="10101" employed="no">
		<plan selected="yes">
			<act type="home" x="643117.875" y="239439.7031" end_time="06:34:00" />
			<leg mode="car">
			</leg>
			<act type="work" x="724163.25" y="242135.375" end_time="15:52:00" />
			<leg mode="car">
			</leg>
			<act type="home" x="643117.875" y="239439.7031" />
		</plan>

	</person>

<!-- ====================================================================== -->

	<person id="1011" employed="no">
		<plan selected="yes">
			<act type="home" x="732852.125" y="219377.0938" end_time="06:59:00" />
			<leg mode="car">
			</leg>
			<act type="work" x="682322.625" y="248174.6563" end_time="16:45:00" />
			<leg mode="car">
			</leg>
			<act type="home" x="732852.125" y="219377.0938" />
		</plan>

	</person>

<!-- ====================================================================== -->

	<person id="1012" employed="no">
		<plan selected="yes">
			<act type="home" x="734018.875" y="219275.0938" end_time="06:10:00" />
			<leg mode="car">
			</leg>
			<act type="work" x="646370.5" y="220855.0" end_time="15:14:00" />
			<leg mode="car">
			</leg>
			<act type="home" x="734018.875" y="219275.0938" />
		</plan>

	</person>

<!-- ====================================================================== -->

	<person id="10120" employed="no">
		<plan selected="yes">
			<act type="home" x="642856.125" y="255335.2031" end_time="05:36:00" />
			<leg mode="car">
			</leg>
			<act type="work" x="727034.125" y="277827.0938" end_time="15:51:00" />
			<leg mode="car">
			</leg>
			<act type="home" x="642856.125" y="255335.2031" />
		</plan>

	</person>

<!-- ====================================================================== -->

	<person id="10122" employed="no">
		<plan selected="yes">
			<act type="home" x="645652.1875" y="231195.2969" end_time="06:32:00" />
			<leg mode="car">
			</leg>
			<act type="work" x="671125.125" y="246818.7031" end_time="15:42:00" />
			<leg mode="car">
			</leg>
			<act type="home" x="645652.1875" y="231195.2969" />
		</plan>

	</person>

<!-- ====================================================================== -->

	<person id="10123" employed="no">
		<plan selected="yes">
			<act type="home" x="646947.125" y="231936.7969" end_time="06:08:00" />
			<leg mode="car">
			</leg>
			<act type="work" x="682972.5" y="247258.9688" end_time="16:10:00" />
			<leg mode="car">
			</leg>
			<act type="home" x="646947.125" y="231936.7969" />
		</plan>

	</person>

<!-- ====================================================================== -->

	<person id="10124" employed="no">
		<plan selected="yes">
			<act type="home" x="648544.3125" y="251647.2969" end_time="05:27:00" />
			<leg mode="car">
			</leg>
			<act type="work" x="694155.8125" y="289332.9063" end_time="16:54:00" />
			<leg mode="car">
			</leg>
			<act type="home" x="648544.3125" y="251647.2969" />
		</plan>

	</person>

<!-- ====================================================================== -->

	<person id="10125" employed="no">
		<plan selected="yes">
			<act type="home" x="649836.875" y="254189.2031" end_time="05:01:00" />
			<leg mode="car">
			</leg>
			<act type="work" x="739477.0" y="247703.0938" end_time="15:32:00" />
			<leg mode="car">
			</leg>
			<act type="home" x="649836.875" y="254189.2031" />
		</plan>

	</person>

<!-- ====================================================================== -->

	<person id="10126" employed="no">
		<plan selected="yes">
			<act type="home" x="648534.5" y="258674.0938" end_time="06:22:00" />
			<leg mode="car">
			</leg>
			<act type="work" x="697857.5" y="204924.4063" end_time="15:08:00" />
			<leg mode="car">
			</leg>
			<act type="home" x="648534.5" y="258674.0938" />
		</plan>

	</person>

<!-- ====================================================================== -->

	<person id="1013" employed="no">
		<plan selected="yes">
			<act type="home" x="735399.125" y="219143.1875" end_time="06:41:00" />
			<leg mode="car">
			</leg>
			<act type="work" x="669537.6875" y="263683.8125" end_time="15:10:00" />
			<leg mode="car">
			</leg>
			<act type="home" x="735399.125" y="219143.1875" />
		</plan>

	</person>

<!-- ====================================================================== -->

	<person id="1014" employed="no">
		<plan selected="yes">
			<act type="home" x="736448.875" y="219146.75" end_time="05:15:00" />
			<leg mode="car">
			</leg>
			<act type="work" x="677853.875" y="253999.7031" end_time="16:03:00" />
			<leg mode="car">
			</leg>
			<act type="home" x="736448.875" y="219146.75" />
		</plan>

	</person>

<!-- ====================================================================== -->

	<person id="10142" employed="no">
		<plan selected="yes">
			<act type="home" x="652527.0" y="225493.4063" end_time="06:57:00" />
			<leg mode="car">
			</leg>
			<act type="work" x="697746.0" y="271346.0" end_time="16:52:00" />
			<leg mode="car">
			</leg>
			<act type="home" x="652527.0" y="225493.4063" />
		</plan>

	</person>

<!-- ====================================================================== -->

	<person id="10147" employed="no">
		<plan selected="yes">
			<act type="home" x="647616.1875" y="204722.7031" end_time="06:10:00" />
			<leg mode="car">
			</leg>
			<act type="work" x="739450.3125" y="219590.2969" end_time="16:45:00" />
			<leg mode="car">
			</leg>
			<act type="home" x="647616.1875" y="204722.7031" />
		</plan>

	</person>

<!-- ====================================================================== -->

	<person id="10148" employed="no">
		<plan selected="yes">
			<act type="home" x="647822.875" y="204624.7031" end_time="05:26:00" />
			<leg mode="car">
			</leg>
			<act type="work" x="721806.375" y="224253.5938" end_time="15:54:00" />
			<leg mode="car">
			</leg>
			<act type="home" x="647822.875" y="204624.7031" />
		</plan>

	</person>

<!-- ====================================================================== -->

	<person id="10149" employed="no">
		<plan selected="yes">
			<act type="home" x="650664.3125" y="202660.7969" end_time="06:49:00" />
			<leg mode="car">
			</leg>
			<act type="work" x="664934.0" y="214122.0" end_time="15:13:00" />
			<leg mode="car">
			</leg>
			<act type="home" x="650664.3125" y="202660.7969" />
		</plan>

	</person>

<!-- ====================================================================== -->

	<person id="1015" employed="no">
		<plan selected="yes">
			<act type="home" x="737739.625" y="219174.125" end_time="06:21:00" />
			<leg mode="car">
			</leg>
			<act type="work" x="696222.125" y="270595.3125" end_time="15:06:00" />
			<leg mode="car">
			</leg>
			<act type="home" x="737739.625" y="219174.125" />
		</plan>

	</person>

<!-- ====================================================================== -->

	<person id="10150" employed="no">
		<plan selected="yes">
			<act type="home" x="649595.5" y="206065.7969" end_time="05:05:00" />
			<leg mode="car">
			</leg>
			<act type="work" x="665064.5" y="211635.7031" end_time="15:16:00" />
			<leg mode="car">
			</leg>
			<act type="home" x="649595.5" y="206065.7969" />
		</plan>

	</person>

<!-- ====================================================================== -->

	<person id="10151" employed="no">
		<plan selected="yes">
			<act type="home" x="650094.1875" y="211396.5938" end_time="05:20:00" />
			<leg mode="car">
			</leg>
			<act type="work" x="717459.1875" y="270145.5" end_time="15:27:00" />
			<leg mode="car">
			</leg>
			<act type="home" x="650094.1875" y="211396.5938" />
		</plan>

	</person>

<!-- ====================================================================== -->

	<person id="10152" employed="no">
		<plan selected="yes">
			<act type="home" x="650305.0" y="211868.9063" end_time="05:18:00" />
			<leg mode="car">
			</leg>
			<act type="work" x="695257.3125" y="260057.9063" end_time="15:08:00" />
			<leg mode="car">
			</leg>
			<act type="home" x="650305.0" y="211868.9063" />
		</plan>

	</person>

<!-- ====================================================================== -->

	<person id="10153" employed="no">
		<plan selected="yes">
			<act type="home" x="650288.3125" y="210824.0" end_time="06:24:00" />
			<leg mode="car">
			</leg>
			<act type="work" x="700200.0" y="222081.2031" end_time="15:52:00" />
			<leg mode="car">
			</leg>
			<act type="home" x="650288.3125" y="210824.0" />
		</plan>

	</person>

<!-- ====================================================================== -->

	<person id="10154" employed="no">
		<plan selected="yes">
			<act type="home" x="650448.125" y="212223.5938" end_time="06:15:00" />
			<leg mode="car">
			</leg>
			<act type="work" x="733440.1875" y="231734.7969" end_time="16:21:00" />
			<leg mode="car">
			</leg>
			<act type="home" x="650448.125" y="212223.5938" />
		</plan>

	</person>

<!-- ====================================================================== -->

	<person id="10155" employed="no">
		<plan selected="yes">
			<act type="home" x="647424.5" y="208976.7031" end_time="06:13:00" />
			<leg mode="car">
			</leg>
			<act type="work" x="679947.8125" y="233602.5938" end_time="15:27:00" />
			<leg mode="car">
			</leg>
			<act type="home" x="647424.5" y="208976.7031" />
		</plan>

	</person>

<!-- ====================================================================== -->

	<person id="10156" employed="no">
		<plan selected="yes">
			<act type="home" x="649006.875" y="214451.5938" end_time="06:48:00" />
			<leg mode="car">
			</leg>
			<act type="work" x="682015.5" y="222845.0" end_time="16:17:00" />
			<leg mode="car">
			</leg>
			<act type="home" x="649006.875" y="214451.5938" />
		</plan>

	</person>

<!-- ====================================================================== -->

	<person id="10157" employed="no">
		<plan selected="yes">
			<act type="home" x="648949.5" y="214661.0" end_time="06:54:00" />
			<leg mode="car">
			</leg>
			<act type="work" x="695043.6875" y="254841.2969" end_time="15:39:00" />
			<leg mode="car">
			</leg>
			<act type="home" x="648949.5" y="214661.0" />
		</plan>

	</person>

<!-- ====================================================================== -->

	<person id="10158" employed="no">
		<plan selected="yes">
			<act type="home" x="649011.875" y="214783.2031" end_time="06:44:00" />
			<leg mode="car">
			</leg>
			<act type="work" x="683392.8125" y="227982.5938" end_time="16:48:00" />
			<leg mode="car">
			</leg>
			<act type="home" x="649011.875" y="214783.2031" />
		</plan>

	</person>

<!-- ====================================================================== -->

	<person id="10159" employed="no">
		<plan selected="yes">
			<act type="home" x="648946.0" y="215874.5" end_time="05:58:00" />
			<leg mode="car">
			</leg>
			<act type="work" x="715230.8125" y="236048.0938" end_time="15:05:00" />
			<leg mode="car">
			</leg>
			<act type="home" x="648946.0" y="215874.5" />
		</plan>

	</person>

<!-- ====================================================================== -->

	<person id="1016" employed="no">
		<plan selected="yes">
			<act type="home" x="738016.125" y="219344.875" end_time="05:51:00" />
			<leg mode="car">
			</leg>
			<act type="work" x="690029.1875" y="252764.9063" end_time="16:05:00" />
			<leg mode="car">
			</leg>
			<act type="home" x="738016.125" y="219344.875" />
		</plan>

	</person>

<!-- ====================================================================== -->

	<person id="10160" employed="no">
		<plan selected="yes">
			<act type="home" x="648114.875" y="216057.0938" end_time="05:36:00" />
			<leg mode="car">
			</leg>
			<act type="work" x="661190.6875" y="251659.2969" end_time="16:26:00" />
			<leg mode="car">
			</leg>
			<act type="home" x="648114.875" y="216057.0938" />
		</plan>

	</person>

<!-- ====================================================================== -->

	<person id="10161" employed="no">
		<plan selected="yes">
			<act type="home" x="648125.875" y="216060.0938" end_time="06:48:00" />
			<leg mode="car">
			</leg>
			<act type="work" x="705387.5" y="265270.0938" end_time="15:12:00" />
			<leg mode="car">
			</leg>
			<act type="home" x="648125.875" y="216060.0938" />
		</plan>

	</person>

<!-- ====================================================================== -->

	<person id="10162" employed="no">
		<plan selected="yes">
			<act type="home" x="652756.0" y="212835.2031" end_time="06:31:00" />
			<leg mode="car">
			</leg>
			<act type="work" x="705346.125" y="264570.6875" end_time="16:20:00" />
			<leg mode="car">
			</leg>
			<act type="home" x="652756.0" y="212835.2031" />
		</plan>

	</person>

<!-- ====================================================================== -->

	<person id="10163" employed="no">
		<plan selected="yes">
			<act type="home" x="651335.625" y="217082.7031" end_time="05:16:00" />
			<leg mode="car">
			</leg>
			<act type="work" x="694596.125" y="263666.0" end_time="16:03:00" />
			<leg mode="car">
			</leg>
			<act type="home" x="651335.625" y="217082.7031" />
		</plan>

	</person>

<!-- ====================================================================== -->

	<person id="10164" employed="no">
		<plan selected="yes">
			<act type="home" x="651809.3125" y="217614.7969" end_time="05:07:00" />
			<leg mode="car">
			</leg>
			<act type="work" x="685561.3125" y="253636.0938" end_time="15:54:00" />
			<leg mode="car">
			</leg>
			<act type="home" x="651809.3125" y="217614.7969" />
		</plan>

	</person>

<!-- ====================================================================== -->

	<person id="10165" employed="no">
		<plan selected="yes">
			<act type="home" x="652855.8125" y="218348.9063" end_time="06:29:00" />
			<leg mode="car">
			</leg>
			<act type="work" x="667644.8125" y="208035.0938" end_time="16:49:00" />
			<leg mode="car">
			</leg>
			<act type="home" x="652855.8125" y="218348.9063" />
		</plan>

	</person>

<!-- ====================================================================== -->

	<person id="10166" employed="no">
		<plan selected="yes">
			<act type="home" x="653166.8125" y="219397.2031" end_time="06:50:00" />
			<leg mode="car">
			</leg>
			<act type="work" x="647868.5" y="227282.4063" end_time="15:15:00" />
			<leg mode="car">
			</leg>
			<act type="home" x="653166.8125" y="219397.2031" />
		</plan>

	</person>

<!-- ====================================================================== -->

	<person id="10167" employed="no">
		<plan selected="yes">
			<act type="home" x="649634.625" y="218348.2969" end_time="05:42:00" />
			<leg mode="car">
			</leg>
			<act type="work" x="728012.75" y="220796.9531" end_time="16:02:00" />
			<leg mode="car">
			</leg>
			<act type="home" x="649634.625" y="218348.2969" />
		</plan>

	</person>

<!-- ====================================================================== -->

	<person id="10168" employed="no">
		<plan selected="yes">
			<act type="home" x="650621.8125" y="219198.9063" end_time="05:30:00" />
			<leg mode="car">
			</leg>
			<act type="work" x="662087.125" y="264509.3125" end_time="15:45:00" />
			<leg mode="car">
			</leg>
			<act type="home" x="650621.8125" y="219198.9063" />
		</plan>

	</person>

<!-- ====================================================================== -->

	<person id="10169" employed="no">
		<plan selected="yes">
			<act type="home" x="651612.0" y="220630.7969" end_time="05:43:00" />
			<leg mode="car">
			</leg>
			<act type="work" x="668270.125" y="203493.7969" end_time="16:04:00" />
			<leg mode="car">
			</leg>
			<act type="home" x="651612.0" y="220630.7969" />
		</plan>

	</person>

<!-- ====================================================================== -->

	<person id="1017" employed="no">
		<plan selected="yes">
			<act type="home" x="738246.3125" y="219481.9531" end_time="06:57:00" />
			<leg mode="car">
			</leg>
			<act type="work" x="665238.0625" y="256817.9844" end_time="16:35:00" />
			<leg mode="car">
			</leg>
			<act type="home" x="738246.3125" y="219481.9531" />
		</plan>

	</person>

<!-- ====================================================================== -->

	<person id="10170" employed="no">
		<plan selected="yes">
			<act type="home" x="650485.3125" y="224051.7969" end_time="05:29:00" />
			<leg mode="car">
			</leg>
			<act type="work" x="663948.8125" y="213239.9063" end_time="15:57:00" />
			<leg mode="car">
			</leg>
			<act type="home" x="650485.3125" y="224051.7969" />
		</plan>

	</person>

<!-- ====================================================================== -->

	<person id="10171" employed="no">
		<plan selected="yes">
			<act type="home" x="650004.3125" y="224688.2969" end_time="06:01:00" />
			<leg mode="car">
			</leg>
			<act type="work" x="726567.8125" y="269323.4063" end_time="15:23:00" />
			<leg mode="car">
			</leg>
			<act type="home" x="650004.3125" y="224688.2969" />
		</plan>

	</person>

<!-- ====================================================================== -->

	<person id="10172" employed="no">
		<plan selected="yes">
			<act type="home" x="649223.125" y="221129.2969" end_time="05:14:00" />
			<leg mode="car">
			</leg>
			<act type="work" x="657305.125" y="220625.7031" end_time="15:31:00" />
			<leg mode="car">
			</leg>
			<act type="home" x="649223.125" y="221129.2969" />
		</plan>

	</person>

<!-- ====================================================================== -->

	<person id="10173" employed="no">
		<plan selected="yes">
			<act type="home" x="647455.0" y="230373.7969" end_time="05:35:00" />
			<leg mode="car">
			</leg>
			<act type="work" x="703517.125" y="290516.0" end_time="16:44:00" />
			<leg mode="car">
			</leg>
			<act type="home" x="647455.0" y="230373.7969" />
		</plan>

	</person>

<!-- ====================================================================== -->

	<person id="10174" employed="no">
		<plan selected="yes">
			<act type="home" x="647978.0" y="227875.0938" end_time="06:36:00" />
			<leg mode="car">
			</leg>
			<act type="work" x="726609.125" y="266014.0938" end_time="15:13:00" />
			<leg mode="car">
			</leg>
			<act type="home" x="647978.0" y="227875.0938" />
		</plan>

	</person>

<!-- ====================================================================== -->

	<person id="10175" employed="no">
		<plan selected="yes">
			<act type="home" x="651303.125" y="230798.2031" end_time="06:56:00" />
			<leg mode="car">
			</leg>
			<act type="work" x="648114.875" y="216057.0938" end_time="16:12:00" />
			<leg mode="car">
			</leg>
			<act type="home" x="651303.125" y="230798.2031" />
		</plan>

	</person>

<!-- ====================================================================== -->

	<person id="10176" employed="no">
		<plan selected="yes">
			<act type="home" x="652027.3125" y="229052.9063" end_time="05:28:00" />
			<leg mode="car">
			</leg>
			<act type="work" x="679753.8125" y="282636.5938" end_time="16:55:00" />
			<leg mode="car">
			</leg>
			<act type="home" x="652027.3125" y="229052.9063" />
		</plan>

	</person>

<!-- ====================================================================== -->

	<person id="10177" employed="no">
		<plan selected="yes">
			<act type="home" x="652536.5" y="229708.0938" end_time="06:15:00" />
			<leg mode="car">
			</leg>
			<act type="work" x="688736.1875" y="229970.5" end_time="15:17:00" />
			<leg mode="car">
			</leg>
			<act type="home" x="652536.5" y="229708.0938" />
		</plan>

	</person>

<!-- ====================================================================== -->

	<person id="10178" employed="no">
		<plan selected="yes">
			<act type="home" x="659109.625" y="218926.4063" end_time="05:28:00" />
			<leg mode="car">
			</leg>
			<act type="work" x="699255.375" y="262533.0" end_time="16:07:00" />
			<leg mode="car">
			</leg>
			<act type="home" x="659109.625" y="218926.4063" />
		</plan>

	</person>

<!-- ====================================================================== -->

	<person id="10179" employed="no">
		<plan selected="yes">
			<act type="home" x="660029.125" y="218477.2969" end_time="06:26:00" />
			<leg mode="car">
			</leg>
			<act type="work" x="696485.6875" y="252457.7031" end_time="16:30:00" />
			<leg mode="car">
			</leg>
			<act type="home" x="660029.125" y="218477.2969" />
		</plan>

	</person>

<!-- ====================================================================== -->

	<person id="10180" employed="no">
		<plan selected="yes">
			<act type="home" x="664743.8125" y="222243.0938" end_time="06:36:00" />
			<leg mode="car">
			</leg>
			<act type="work" x="710946.0" y="219897.7031" end_time="15:15:00" />
			<leg mode="car">
			</leg>
			<act type="home" x="664743.8125" y="222243.0938" />
		</plan>

	</person>

<!-- ====================================================================== -->

	<person id="10181" employed="no">
		<plan selected="yes">
			<act type="home" x="664860.875" y="222554.0938" end_time="05:39:00" />
			<leg mode="car">
			</leg>
			<act type="work" x="686191.3125" y="251674.2031" end_time="15:41:00" />
			<leg mode="car">
			</leg>
			<act type="home" x="664860.875" y="222554.0938" />
		</plan>

	</person>

<!-- ====================================================================== -->

	<person id="10182" employed="no">
		<plan selected="yes">
			<act type="home" x="664403.0" y="224277.0938" end_time="05:48:00" />
			<leg mode="car">
			</leg>
			<act type="work" x="704609.625" y="245107.4063" end_time="15:12:00" />
			<leg mode="car">
			</leg>
			<act type="home" x="664403.0" y="224277.0938" />
		</plan>

	</person>

<!-- ====================================================================== -->

	<person id="10183" employed="no">
		<plan selected="yes">
			<act type="home" x="658580.875" y="219785.2969" end_time="05:16:00" />
			<leg mode="car">
			</leg>
			<act type="work" x="665693.6875" y="210614.5" end_time="15:55:00" />
			<leg mode="car">
			</leg>
			<act type="home" x="658580.875" y="219785.2969" />
		</plan>

	</person>

<!-- ====================================================================== -->

	<person id="10184" employed="no">
		<plan selected="yes">
			<act type="home" x="658132.5" y="218957.2031" end_time="06:47:00" />
			<leg mode="car">
			</leg>